src/test/resources/pst_special/process1/padricianoOutage/20260620_1130_2D1_UX0.uct
##C 2007.05.01
##N
##ZAT
OGREUT21 Greuth       0 0        65.4248 5.07579 4.32203 -11.863 8.09895 1.03925 0.81451 -33.666                               F
OLIENN11 Lienz        0 0        1.74981 2.17523 9.77922 -7.1140 2.70087 1.97896 2.65087 -5.7749                               F
OLIENN21 Lienz        0 0        31.5247 51.7990 -716.33 4.74186 44.2215 -662.65 50.4681 5.62671                               F
OLIENN22 Lienz        0 0        1.20368 3.64643 7.72169 7.54581
OMALTA21 Malta Haupts 0 2 471.79 054.612 6.29476 -257.32 -25.161 739.879 -3373.6 308.585 -122.40                               F
OMALTA22 Malta Haupts 0 0        0.27538 9.33456 -633.10 -56.754 629.214 -5204.4 9.60754 -21.488                               F
OROSEG21 Rosegg       0 0        5.33404 3.97323 -43.753 -4.3491 5.46143 -19.879 3.49284 -7.8446                               F
##ZIT
IMFTV121 MONFALC.CE g 0 0        7.52739 1.81461 0.02726 3.99332
IPDRV121 PADRICIANO g 0 0        20.8777 -9.6996 3.25287 6.90495
IPDRV122 PADRICIANO g 0 0        1.48449 1.14381 2.91611 8.01131
IRDPVA21 REDIPUGLIA g 0 0        89.0908 22.5146 4.83128 9.70118
##ZSI
LBERIC1  BERICEVO     0 0        6.39295 2.45826 6.43573 8.51998
LDIVAC11 DIVACA       0 0        5.97137 7.74827 3.24665 2.24964
LDIVAC12 LDIVAC12     0 0        8.15824 1.49265 2.02085 3.99779
LDIVAC51 LDIVAC51     0 0        75.3066 7.54477 0.27837 2.84298
##ZXX
XLI_SO21 LNZO    211  0 0        6.19162 6.86880 2.73074 2.44312
XME_DI11              0 0        0.54267 0.82317 4.45722 3.02821
XPA_DI21              0 0        4.04783 8.59413 7.74647 2.48031
XRE_DI11              0 0        7.30652 2.23975 1.80980 5.34999
##L
IMFTV121 IPDRV121 1 0 2.6158 37.096 039.8110    800 XXXXXXXXXXXX
IMFTV121 IRDPVA21 1 0 6.7862 6.6666 76.78366    716 XXXXXXXXXXXX
IRDPVA21 IPDRV121 1 0 3.4677 75.885 869.7617    713 XXXXXXXXXXXX
LDIVAC11 LBERIC1  1 0 3.0195 41.002 172.7380   1920 XXXXXXXXXXXX
LDIVAC11 XME_DI11 1 0 0.6301 73.979 468.4150   1920 XXXXXXXXXXXX
LDIVAC12 LDIVAC11 2 7 2.5348 7.4710 1.683320   9999 XXXXXXXXXXXX
LDIVAC12 XRE_DI11 1 0 4.9616 1.7528 69.67785   2700 XXXXXXXXXXXX
OGREUT21 OLIENN21 1 0 0.9868 16.358 913.2222   2080 XXXXXXXXXXXX
OLIENN21 OLIENN22 1 7 9.8416 8.8351 7.924068   2154 XXXXXXXXXXXX
OLIENN21 OMALTA21 1 0 4.6229 59.830 067.3236   2400 XXXXXXXXXXXX
OLIENN21 OMALTA22 2 0 4.0245 27.841 550.0276   2000 XXXXXXXXXXXX
OLIENN21 OROSEG21 1 0 4.6354 66.152 789.6583   2000 XXXXXXXXXXXX
OLIENN22 XLI_SO21 1 0 0.0051 62.141 682.7245    637 XXXXXXXXXXXX
OMALTA21 OMALTA22 1 2 0.6925 1.1778 4.613245   2000 XXXXXXXXXXXX
XPA_DI21 IPDRV122 1 0 3.7999 8.7032 81.18535    900 XXXXXXXXXXXX
##T
IPDRV121 IPDRV122 1 8 277.5 822.8 287.5 8.1415 71.178 -4.18308 3.7869    928 XXXXXXXXXXXX
LDIVAC11 LDIVAC12 1 0 289.8 322.0 1200. 6.9794 11.292 -3.41941 2.5201   1732 XXXXXXXXXXXX
LDIVAC51 LDIVAC11 1 0 727.0 114.1 934.9 4.0982 3.4673 -167.495 02.077   1506 XXXXXXXXXXXX
OLIENN21 OLIENN11 1 0 669.9 088.9 355.1 2.2622 95.950 -49.3319 5.0984   1696 XXXXXXXXXXXX
OLIENN21 OLIENN11 2 0 089.5 833.5 644.6 6.7058 17.496 -16.4100 1.6490   1696 XXXXXXXXXXXX
OLIENN21 OLIENN22 2 0 807.0 608.0 552.1 4.0152 97.545 4.765160 6.2103    746 XXXXXXXXXXXX
##R
IPDRV121 IPDRV122 1                    2.935 96.59 16   0 1.179 SYMM
LDIVAC11 LDIVAC12 1                    1.469 80.08 32   0       SYMM
LDIVAC51 LDIVAC11 1 8.061 12  -1
OLIENN21 OLIENN11 1                    0.130 56.39 13   0       ASYM
OLIENN21 OLIENN11 2                    9.876 72.95 13   0       ASYM
OLIENN21 OLIENN22 2                    7.488 43.87 32   0       SYMM
